! Blank file in which we can put "overrides" for parameters
!VERBOSITY = 9
#override NIGLOBAL = 4
#override NJGLOBAL = 4
#override NIHALO = 3
#override NJHALO = 3
#override COORD_CONFIG = "ALE"
#override INTERPOLATION_SCHEME = "PPM_H4"
#override REGRIDDING_COORDINATE_MODE = "Z*"
!#override ALE_COORDINATE_CONFIG = "FNC1:2,6500,6,.01"
#override ALE_COORDINATE_CONFIG = UNIFORM
#override REENTRANT_Y = True
#override REENTRANT_X = True
#override SAVE_INITIAL_CONDS = True

#override HOMOGENIZE_FORCINGS = True
#override HOMOGENIZE_SURFBANDS = True
#override UPDATE_USTAR = True

#override USE_JACKSON_PARAM = False
#override USE_GOTM = True
#override DT = 30
#override STOKES_DDT=True
#override STOKES_VF= True
#override STOKES_PGF=True
#override GOTM_VERTEX_SHEAR = False
#override USE_WAVES = True
#override WAVE_METHOD = SURFACE_BANDS
SURFBAND_SOURCE = DATAOVERRIDE
SURFBAND_FILENAME = INPUT/Hurr.nc
