! This input file provides the adjustable run-time parameters for version 6 of the Modular Ocean Model (MOM6).
! Where appropriate, parameters use usually given in MKS units.

! This particular file is for the example in idealized_hurricane.

! This MOM_input file typically contains only the non-default values that are needed to reproduce this example.
! A full list of parameters for this example can be found in the corresponding MOM_parameter_doc.all file
! which is generated by the model at run-time.

! This file was written by the model and records the non-default parameters used at run-time.

! === module MOM_domains ===
REENTRANT_X = False             !   [Boolean] default = True
                                ! If true, the domain is zonally reentrant.
NIGLOBAL = 300                  !
                                ! The total number of thickness grid points in the x-direction in the physical
                                ! domain. With STATIC_MEMORY_ this is set in MOM_memory.h at compile time.
NJGLOBAL = 180                  !
                                ! The total number of thickness grid points in the y-direction in the physical
                                ! domain. With STATIC_MEMORY_ this is set in MOM_memory.h at compile time.
!LAYOUT = 1, 1                 !
                                ! The processor layout that was actually used.

! === module MOM ===
USE_REGRIDDING = True           !   [Boolean] default = False
                                ! If True, use the ALE algorithm (regridding/remapping). If False, use the
                                ! layered isopycnal algorithm.
THICKNESSDIFFUSE = True         !   [Boolean] default = False
                                ! If true, interface heights are diffused with a
                                ! coefficient of KHTH.
THICKNESSDIFFUSE_FIRST = True   !   [Boolean] default = False
                                ! If true, do thickness diffusion before dynamics.
                                ! This is only used if THICKNESSDIFFUSE is true.
DT = 300.0                      !   [s]
                                ! The (baroclinic) dynamics time step.  The time-step that is actually used will
                                ! be an integer fraction of the forcing time-step (DT_FORCING in ocean-only mode
                                ! or the coupling timestep in coupled mode.)
THERMO_SPANS_COUPLING = True    !   [Boolean] default = False
                                ! If true, the MOM will take thermodynamic and tracer
                                ! timesteps that can be longer than the coupling timestep.
                                ! The actual thermodynamic timestep that is used in this
                                ! case is the largest integer multiple of the coupling
                                ! timestep that is less than or equal to DT_THERM.
FRAZIL = True                   !   [Boolean] default = False
                                ! If true, water freezes if it gets too cold, and the
                                ! the accumulated heat deficit is returned in the
                                ! surface state.  FRAZIL is only used if
                                ! ENABLE_THERMODYNAMICS is true.
DO_GEOTHERMAL = False            !   [Boolean] default = False
                                ! If true, apply geothermal heating.
BOUND_SALINITY = True           !   [Boolean] default = False
                                ! If true, limit salinity to being positive. (The sea-ice
                                ! model may ask for more salt than is available and
                                ! drive the salinity negative otherwise.)
C_P = 3992.0                    !   [J kg-1 K-1] default = 3991.86795711963
                                ! The heat capacity of sea water, approximated as a
                                ! constant. This is only used if ENABLE_THERMODYNAMICS is
                                ! true. The default value is from the TEOS-10 definition
                                ! of conservative temperature.
CHECK_BAD_SURFACE_VALS = True   !   [Boolean] default = False
                                ! If true, check the surface state for ridiculous values.
BAD_VAL_SSH_MAX = 50.0          !   [m] default = 20.0
BAD_VAL_SSS_MAX = 75.0          !   [PPT] default = 45.0
                                ! The value of SSS above which a bad value message is
                                ! triggered, if CHECK_BAD_SURFACE_VALS is true.
BAD_VAL_SST_MAX = 55.0          !   [deg C] default = 45.0
                                ! The value of SST above which a bad value message is
                                ! triggered, if CHECK_BAD_SURFACE_VALS is true.
BAD_VAL_SST_MIN = -3.0          !   [deg C] default = -2.1
                                ! The value of SST below which a bad value message is
                                ! triggered, if CHECK_BAD_SURFACE_VALS is true.
WRITE_GEOM = 0                  ! default = 1
                                ! If =0, never write the geometry and vertical grid files.
                                ! If =1, write the geometry and vertical grid files only for
                                ! a new simulation. If =2, always write the geometry and
                                ! vertical grid files. Other values are invalid.
! === module MOM_fixed_initialization ===
INPUTDIR = "INPUT"              ! default = "."
                                ! The directory in which input files are found.

! === module MOM_grid_init ===
GRID_CONFIG = "mosaic"          !
                                ! A character string that determines the method for
                                ! defining the horizontal grid.  Current options are:
                                !     mosaic - read the grid from a mosaic (supergrid)
                                !              file set by GRID_FILE.
                                !     cartesian - use a (flat) Cartesian grid.
                                !     spherical - use a simple spherical grid.
                                !     mercator - use a Mercator spherical grid.
GRID_FILE = "ocean_hgrid.nc"    !
                                ! Name of the file from which to read horizontal grid data.
TOPO_CONFIG = "file"            !
TOPO_FILE = "topog.nc"    ! default = "topog.nc"
                                ! The file from which the bathymetry is read.
MINIMUM_DEPTH = 9.5             !   [m] default = 0.0
                                ! If MASKING_DEPTH is unspecified, then anything shallower than
                                ! MINIMUM_DEPTH is assumed to be land and all fluxes are masked out.
                                ! If MASKING_DEPTH is specified, then all depths shallower than
                                ! MINIMUM_DEPTH but deeper than MASKING_DEPTH are rounded to MINIMUM_DEPTH.
AXIS_UNITS = "km"               ! default = "degrees"
                                ! The units for the Cartesian axes. Valid entries are:
                                !     degrees - degrees of latitude and longitude
                                !     m - meters
                                !     k - kilometers
MAXIMUM_DEPTH = 4000.0          !   [m]
                                ! The maximum depth of the ocean.
ROTATION = "betaplane"          ! default = "2omegasinlat"
                                ! This specifies how the Coriolis parameter is specified:
                                !     2omegasinlat - Use twice the planetary rotation rate
                                !       times the sine of latitude.
                                !     betaplane - Use a beta-plane or f-plane.
                                !     USER - call a user modified routine.
F_0 = 6.8103E-05                !   [s-1] default = 0.0
                                ! The reference value of the Coriolis parameter with the betaplane option.

! === module MOM_verticalGrid ===
! Parameters providing information about the vertical grid.
NK = 80                         !   [nondim]
                                ! The number of model layers.
! === module MOM_open_boundary ===
! Controls where open boundaries are located, what kind of boundary condition to impose, and what data to apply, if any.
MASKING_DEPTH = 0.0             !   [m] default = -9999.0
                                ! The depth below which to mask points as land points, for which all
                                ! fluxes are zeroed out. MASKING_DEPTH is ignored if negative.
CHANNEL_CONFIG = "none"         ! default = "none"
                                ! A parameter that determines which set of channels are
                                ! restricted to specific  widths.  Options are:
                                !     none - All channels have the grid width.
                                !     global_1deg - Sets 16 specific channels appropriate
                                !       for a 1-degree model, as used in CM2G.
                                !     list - Read the channel locations and widths from a
                                !       text file, like MOM_channel_list in the MOM_SIS
                                !       test case.
                                !     file - Read open face widths everywhere from a
                                !       NetCDF file on the model grid.
CHANNEL_LIST_FILE = "MOM_channels_global_025" ! default = "MOM_channel_list"
                                ! The file from which the list of narrowed channels is read.



! === module MOM_EOS ===
EQN_OF_STATE = "LINEAR"         ! default = "WRIGHT"
                                ! EQN_OF_STATE determines which ocean equation of state should be used.
                                ! Currently, the valid choices are "LINEAR", "UNESCO", "WRIGHT", "NEMO" and
                                ! "TEOS10". This is only used if USE_EOS is true.
DTFREEZE_DP = -7.75E-08         !   [deg C Pa-1] default = 0.0
                                ! When TFREEZE_FORM=LINEAR,
                                ! this is the derivative of the freezing potential
                                ! temperature with pressure.
! === module MOM_tracer_flow_control ===

! === module MOM_coord_initialization ===
REGRIDDING_COORDINATE_MODE = "Z*" ! default = "LAYER"
                                ! Coordinate mode for vertical regridding. Choose among the following
                                ! possibilities:  LAYER - Isopycnal or stacked shallow water layers
                                !  ZSTAR, Z* - stretched geopotential z*
                                !  SIGMA_SHELF_ZSTAR - stretched geopotential z* ignoring shelf
                                !  SIGMA - terrain following coordinates
                                !  RHO   - continuous isopycnal
                                !  HYCOM1 - HyCOM-like hybrid coordinate
                                !  SLIGHT - stretched coordinates above continuous isopycnal
                                !  ADAPTIVE - optimize for smooth neutral density surfaces
ALE_COORDINATE_CONFIG = "FILE:vgrid.nc,dz" ! default = "UNIFORM"
                                ! Determines how to specify the coordinate resolution. Valid options are:
                                !  PARAM       - use the vector-parameter ALE_RESOLUTION
                                !  UNIFORM[:N] - uniformly distributed
                                !  FILE:string - read from a file. The string specifies
                                !                the filename and variable name, separated
                                !                by a comma or space, e.g. FILE:lev.nc,dz
                                !                or FILE:lev.nc,interfaces=zw
                                !  WOA09[:N]   - the WOA09 vertical grid (approximately)
                                !  FNC1:string - FNC1:dz_min,H_total,power,precision
                                !  HYBRID:string - read from a file. The string specifies
                                !                the filename and two variable names, separated
                                !                by a comma or space, for sigma-2 and dz. e.g.
                                !                HYBRID:vgrid.nc,sigma2,dz
!ALE_RESOLUTION = 40*2.5, 20*5.0, 10*10.0, 2*100.0, 2*250.0, 6*500.0 !   [m]
                                ! The distribution of vertical resolution for the target
                                ! grid used for Eulerian-like coordinates. For example,
                                ! in z-coordinate mode, the parameter is a list of level
                                ! thicknesses (in m). In sigma-coordinate mode, the list
                                ! is of non-dimensional fractions of the water column.

! === module MOM_state_initialization ===
THICKNESS_CONFIG = "coord"      ! default = "uniform"
                                ! A string that determines how the initial layer thicknesses are specified for a
                                ! new run:
                                !     file - read interface heights from the file specified
                                !     thickness_file - read thicknesses from the file specified
                                !       by (THICKNESS_FILE).
                                !     coord - determined by ALE coordinate.
                                !     uniform - uniform thickness layers evenly distributed
                                !       between the surface and MAXIMUM_DEPTH.
                                !     list - read a list of positive interface depths.
                                !     DOME - use a slope and channel configuration for the
                                !       DOME sill-overflow test case.
                                !     ISOMIP - use a configuration for the
                                !       ISOMIP test case.
                                !     benchmark - use the benchmark test case thicknesses.
                                !     Neverworld - use the Neverworld test case thicknesses.
                                !     search - search a density profile for the interface
                                !       densities. This is not yet implemented.
                                !     circle_obcs - the circle_obcs test case is used.
                                !     DOME2D - 2D version of DOME initialization.
                                !     adjustment2d - 2D lock exchange thickness ICs.
                                !     sloshing - sloshing gravity thickness ICs.
                                !     seamount - no motion test with seamount ICs.
                                !     dumbbell - sloshing channel ICs.
                                !     soliton - Equatorial Rossby soliton.
                                !     rossby_front - a mixed layer front in thermal wind balance.
                                !     USER - call a user modified routine.
TS_CONFIG = "SCM_CVMix_tests"   !
                                ! A string that determines how the initial tempertures and salinities are
                                ! specified for a new run:
                                !     file - read velocities from the file specified
                                !       by (TS_FILE).
                                !     fit - find the temperatures that are consistent with
                                !       the layer densities and salinity S_REF.
                                !     TS_profile - use temperature and salinity profiles
                                !       (read from TS_FILE) to set layer densities.
                                !     benchmark - use the benchmark test case T & S.
                                !     linear - linear in logical layer space.
                                !     DOME2D - 2D DOME initialization.
                                !     ISOMIP - ISOMIP initialization.
                                !     adjustment2d - 2d lock exchange T/S ICs.
                                !     sloshing - sloshing mode T/S ICs.
                                !     seamount - no motion test with seamount ICs.
                                !     dumbbell - sloshing channel ICs.
                                !     rossby_front - a mixed layer front in thermal wind balance.
                                !     SCM_CVMix_tests - used in the SCM CVMix tests.
                                !     USER - call a user modified routine.
SCM_TEMP_MLD = 20.0             !   [m] default = 0.0
                                ! Initial temp mixed layer depth
SCM_L1_TEMP = 29.25             !   [C] default = 20.0
                                ! Layer 1 surface temperature
SCM_L2_TEMP = 29.25              !   [C] default = 20.0
                                ! Layer 2 surface temperature
SCM_L2_DTDZ = 0.1              !   [C/m] default = 0.0
                                ! Initial temperature stratification in layer 2

! === module MOM_diag_mediator ===

! === module MOM_lateral_mixing_coeffs ===

! === module MOM_set_visc ===
HBBL = 10.0                     !   [m]
                                ! The thickness of a bottom boundary layer with a viscosity of KVBBL if
                                ! BOTTOMDRAGLAW is not defined, or the thickness over which near-bottom
                                ! velocities are averaged for the drag law if BOTTOMDRAGLAW is defined but
                                ! LINEAR_DRAG is not.
KV = 1.0E-06                    !   [m2 s-1]
                                ! The background kinematic viscosity in the interior. The molecular value, ~1e-6
                                ! m2 s-1, may be used.

! === module MOM_thickness_diffuse ===

! === module MOM_dynamics_split_RK2 ===

! === module MOM_continuity ===

! === module MOM_continuity_PPM ===

! === module MOM_CoriolisAdv ===

! === module MOM_PressureForce ===

! === module MOM_PressureForce_AFV ===

! === module MOM_hor_visc ===
LAPLACIAN = True                !   [Boolean] default = False
                                ! If true, use a Laplacian horizontal viscosity.
AH_VEL_SCALE = 0.01             !   [m s-1] default = 0.0
                                ! The velocity scale which is multiplied by the cube of the grid spacing to
                                ! calculate the biharmonic viscosity. The final viscosity is the largest of this
                                ! scaled viscosity, the Smagorinsky and Leith viscosities, and AH.
SMAGORINSKY_AH = True           !   [Boolean] default = False
                                ! If true, use a biharmonic Smagorinsky nonlinear eddy viscosity.
BACKSCATTER_UNDERBOUND = True   !   [Boolean] default = False
                                ! If true, the bounds on the biharmonic viscosity are allowed to increase where
                                ! the Laplacian viscosity is negative (due to backscatter parameterizations)
                                ! beyond the largest timestep-dependent stable values of biharmonic viscosity
                                ! when no Laplacian viscosity is applied.  The default is true for historical
                                ! reasons, but this option probably should not be used because it can contribute
                                ! to numerical instabilities.
SMAG_BI_CONST = 0.06            !   [nondim] default = 0.0
                                ! The nondimensional biharmonic Smagorinsky constant, typically 0.015 - 0.06.

! === module MOM_vert_friction ===
HMIX_FIXED = 0.01               !   [m]
                                ! The prescribed depth over which the near-surface viscosity and diffusivity are
                                ! elevated when the bulk mixed layer is not used.
KVML = 0.0                      !   [m2 s-1] default = 1.0E-06
                                ! The kinematic viscosity in the mixed layer.  A typical value is ~1e-2 m2 s-1.
                                ! KVML is not used if BULKMIXEDLAYER is true.  The default is set by KV.

! === module MOM_barotropic ===
DTBT = 30.0                     !   [s or nondim] default = -0.98
                                ! The barotropic time step, in s. DTBT is only used with the split explicit time
                                ! stepping. To set the time step automatically based the maximum stable value
                                ! use 0, or a negative value gives the fraction of the stable value. Setting
                                ! DTBT to 0 is the same as setting it to -0.98. The value of DTBT that will
                                ! actually be used is an integer fraction of DT, rounding down.

! === module MOM_diagnostics ===

! === module MOM_diabatic_driver ===
! The following parameters are used for diabatic processes.
!!!!!!!!!!!!!!!!!!!!!!!!!!!!!!!!!!!!!!!!!!!!!!!!!!!!!!!!!!!!!!!!!!!!!!!!!!!!!!!!!!!!!!!!!!!!!!!!!!!!!!!!!!!!!ePBL related setting
ENERGETICS_SFC_PBL = True       !   [Boolean] default = False
                                ! If true, use an implied energetics planetary boundary layer scheme to
                                ! determine the diffusivity and viscosity in the surface boundary layer.
EPBL_IS_ADDITIVE = False        !   [Boolean] default = True
                                
IGNORE_FLUXES_OVER_LAND = True  !   [Boolean] default = False
                                ! If true, the model does not check if fluxes are being applied over land
                                ! points. This is needed when the ocean is coupled with ice shelves and sea ice,
                                ! since the sea ice mask needs to be different than the ocean mask to avoid sea
                                ! ice formation under ice shelves. This flag only works when use_ePBL = True.
! === module MOM_energetic_PBL ===    
ML_OMEGA_FRAC = 0.001           !   [nondim] default = 0.0
                                ! When setting the decay scale for turbulence, use this fraction of the absolute
                                ! rotation rate blended with the local value of f, as sqrt((1-of)*f^2 +
                                ! of*4*omega^2).
TKE_DECAY = 0.001               !   [nondim] default = 2.5
                                ! TKE_DECAY relates the vertical rate of decay of the TKE available for
                                ! mechanical entrainment to the natural Ekman depth.
EPBL_MSTAR_SCHEME = "REICHL_H18" ! default = "CONSTANT"
                                ! EPBL_MSTAR_SCHEME selects the method for setting mstar.  Valid values are:
                                !    CONSTANT   - Use a fixed mstar given by MSTAR
                                !    OM4        - Use L_Ekman/L_Obukhov in the stabilizing limit, as in OM4
                                !    REICHL_H18 - Use the scheme documented in Reichl & Hallberg, 2018.
MSTAR_CAP = 10.0                !   [nondim] default = -1.0
RH18_MSTAR_CN3 = -6.0           !   [nondim] default = -5.0
                                ! MSTAR_N coefficient 3 (exponential decay coefficient). The value of -5.0 is
                                ! given in RH18.  Increasing this increases how quickly the value of MSTAR
                                ! decreases as Hf/ust increases.
NSTAR = 0.06                    !   [nondim] default = 0.2
                                ! The portion of the buoyant potential energy imparted by surface fluxes that is
                                ! available to drive entrainment at the base of mixed layer when that energy is
                                ! positive.
MSTAR_CONV_ADJ = 0.66           !   [nondim] default = 0.0
                                ! Coefficient used for reducing mstar during convection due to reduction of
                                ! stable density gradient.
EPBL_TRANSITION_SCALE = 0.01    !   [nondim] default = 0.1
                                ! A scale for the mixing length in the transition layer at the edge of the
                                ! boundary layer as a fraction of the boundary layer thickness.
MIX_LEN_EXPONENT = 1.0          !   [nondim] default = 2.0
EPBL_VEL_SCALE_SCHEME = "REICHL_H18" ! default = "CUBE_ROOT_TKE"
WSTAR_USTAR_COEF = 15.0         !   [nondim] default = 1.0
EPBL_VEL_SCALE_FACTOR = 0.5477  !   [nondim] default = 1.0
VSTAR_SURF_FAC = 1.8258         !   [nondim] default = 1.2
USE_LA_LI2016 = False           !   [nondim] default = False
                                ! A logical to use the Li et al. 2016 (submitted) formula to determine the
                                ! Langmuir number.
EPBL_LT=False
EPBL_LANGMUIR_SCHEME = "ADDITIVE" ! default = "NONE"
                                ! EPBL_LANGMUIR_SCHEME selects the method for including Langmuir turbulence.
                                ! Valid values are:
                                !    NONE     - Do not do any extra mixing due to Langmuir turbulence
                                !    RESCALE  - Use a multiplicative rescaling of mstar to account for Langmuir
                                !      turbulence
                                !    ADDITIVE - Add a Langmuir turblence contribution to mstar to other
                                !      contributions
LT_ENHANCE_COEF = 0.1056        !   [nondim] default = 0.447
LT_ENHANCE_EXP = -1.0           !   [nondim] default = -1.33
LT_MOD_LAC1 = 0.0               !   [nondim] default = -0.87
LT_MOD_LAC4 = 0.8               !   [nondim] default = 0.95
LT_MOD_LAC5 = 0.8               !   [nondim] default = 0.95
LA_DEPTH_RATIO = 0.2
EPBL_MLD_BISECTION = True
EPBL_MLD_MAX_ITS = 40


MLE_USE_PBL_MLD = True

!!!!!!!!!!!!!!!!!!!!!!!!!!!!!!!!!!!!!!!!!!!!!!!!!!!!!!!!!!!!!!!!!!!!!!!!!!!!!!!
! === module MOM_CVMix_KPP ===

! === module MOM_set_diffusivity ===

! === module MOM_bkgnd_mixing ===
! Adding static vertical background mixing coefficients
KD = 1.0E-07                    !   [m2 s-1] default = 0.0
                                ! The background diapycnal diffusivity of density in the interior. Zero or the
                                ! molecular value, ~1e-7 m2 s-1, may be used.

! === module MOM_kappa_shear ===
! Parameterization of shear-driven turbulence following Jackson, Hallberg and Legg, JPO 2008
USE_JACKSON_PARAM = True        !   [Boolean] default = False
                                ! If true, use the Jackson-Hallberg-Legg (JPO 2008) shear mixing
                                ! parameterization.
VERTEX_SHEAR = True             !   [Boolean] default = False
                                ! If true, do the calculations of the shear-driven mixing at the cell vertices
                                ! (i.e., the vorticity points).
KAPPA_SHEAR_VERTEX_PSURF_BUG = False !   [Boolean] default = True
                                ! If true, do a simple average of the cell surface pressures to get a pressure
                                ! at the corner if VERTEX_SHEAR=True.  Otherwise mask out any land points in the
                                ! average.

! === module MOM_diabatic_aux ===
! The following parameters are used for auxiliary diabatic processes.

! === module MOM_opacity ===

! === module MOM_tracer_advect ===

! === module MOM_tracer_hor_diff ===

! === module MOM_sum_output ===
ENERGYSAVEDAYS = 0.05           !   [days] default = 1.0
                                ! The interval in units of TIMEUNIT between saves of the energies of the run and
                                ! other globally summed diagnostics.

! === module MOM_surface_forcing ===             
MAX_P_SURF = 0.0                !   [Pa] default = -1.0
                                ! The maximum surface pressure that can be exerted by the
                                ! atmosphere and floating sea-ice or ice shelves. This is
                                ! needed because the FMS coupling structure does not
                                ! limit the water that can be frozen out of the ocean and
                                ! the ice-ocean heat fluxes are treated explicitly.  No
                                ! limit is applied if a negative value is used.
CD_TIDES = 0.0018               !   [nondim] default = 1.0E-04
                                ! The drag coefficient that applies to the tides.
GUST_CONST = 0.0                !   [Pa] default = 0.02
                                ! The background gustiness in the winds.
USE_RIGID_SEA_ICE = True        !   [Boolean] default = False
                                ! If true, sea-ice is rigid enough to exert a
                                ! nonhydrostatic pressure that resist vertical motion.
SEA_ICE_RIGID_MASS = 100.0      !   [kg m-2] default = 1000.0
                                ! The mass of sea-ice per unit area at which the sea-ice
                                ! starts to exhibit rigidity
! === module idealized_hurricane ===
IDL_HURR_MAX_WIND = 50.0        !   [m/s] default = 65.0
                                ! Maximum wind speed used in the idealized hurricanewind profile.
IDL_HURR_X0 = 3.432E+06         !   [m] default = 0.0
                                ! Idealized Hurricane initial X position
IDL_HURR_Y0 = 9.0E+05           !   [m] default = 0.0
                                ! Idealized Hurricane initial Y position
IDL_HURR_RAD_AMBIENT = 15.0     !   [nondim] default = 12.0
                                ! Radius at which the winds are at their ambient background values, normalized
                                ! by the radius of maximum winds.
IDL_HURR_SCM_BR_BENCH = False   ! default = False
                                ! Single column mode benchmark case switch, which is invoking a modification